# generated using pymatgen
data_BaH2Cl2O
_symmetry_space_group_name_H-M   Pnma
_cell_length_a   11.13672800
_cell_length_b   4.65137100
_cell_length_c   9.09294200
_cell_angle_alpha   90.00000000
_cell_angle_beta   90.00000000
_cell_angle_gamma   90.00000000
_symmetry_Int_Tables_number   62
_chemical_formula_structural   BaH2Cl2O
_chemical_formula_sum   'Ba4 H8 Cl8 O4'
_cell_volume   471.02397642
_cell_formula_units_Z   4
loop_
 _symmetry_equiv_pos_site_id
 _symmetry_equiv_pos_as_xyz
  1  'x, y, z'
  2  '-x, -y, -z'
  3  '-x+1/2, -y, z+1/2'
  4  'x+1/2, y, -z+1/2'
  5  'x+1/2, -y+1/2, -z+1/2'
  6  '-x+1/2, y+1/2, z+1/2'
  7  '-x, y+1/2, -z'
  8  'x, -y+1/2, z'
loop_
 _atom_type_symbol
 _atom_type_oxidation_number
  Ba2+  2.0
  H+  1.0
  Cl-  -1.0
  O2-  -2.0
loop_
 _atom_site_type_symbol
 _atom_site_label
 _atom_site_symmetry_multiplicity
 _atom_site_fract_x
 _atom_site_fract_y
 _atom_site_fract_z
 _atom_site_occupancy
  Ba2+  Ba0  4  0.18711300  0.25000000  0.10652100  1
  H+  H1  4  0.09819900  0.25000000  0.66442200  1
  H+  H2  4  0.13070700  0.25000000  0.50049800  1
  Cl-  Cl3  4  0.10206600  0.75000000  0.87730900  1
  Cl-  Cl4  4  0.11836900  0.75000000  0.33710700  1
  O2-  O5  4  0.16764000  0.25000000  0.59833800  1
