# generated using pymatgen
data_KH8O4F
_symmetry_space_group_name_H-M   P2_1/c
_cell_length_a   6.82746914
_cell_length_b   13.31792400
_cell_length_c   6.65505400
_cell_angle_alpha   90.00000000
_cell_angle_beta   90.80097897
_cell_angle_gamma   90.00000000
_symmetry_Int_Tables_number   14
_chemical_formula_structural   KH8O4F
_chemical_formula_sum   'K4 H32 O16 F4'
_cell_volume   605.06972459
_cell_formula_units_Z   4
loop_
 _symmetry_equiv_pos_site_id
 _symmetry_equiv_pos_as_xyz
  1  'x, y, z'
  2  '-x, -y, -z'
  3  '-x, y+1/2, -z+1/2'
  4  'x, -y+1/2, z+1/2'
loop_
 _atom_type_symbol
 _atom_type_oxidation_number
  K+  1.0
  H+  1.0
  O2-  -2.0
  F-  -1.0
loop_
 _atom_site_type_symbol
 _atom_site_label
 _atom_site_symmetry_multiplicity
 _atom_site_fract_x
 _atom_site_fract_y
 _atom_site_fract_z
 _atom_site_occupancy
  K+  K0  4  0.33885900  0.12969900  0.50209000  1
  H+  H1  4  0.06686900  0.66867200  0.73608800  1
  H+  H2  4  0.06872900  0.09071000  0.09787000  1
  H+  H3  4  0.08383200  0.74649300  0.40198200  1
  H+  H4  4  0.18793000  0.50946700  0.58459100  1
  H+  H5  4  0.19765000  0.60835300  0.02212000  1
  H+  H6  4  0.25509800  0.58704500  0.24568900  1
  H+  H7  4  0.37366400  0.13012700  0.98070500  1
  H+  H8  4  0.40793100  0.66278100  0.55652100  1
  O2-  O9  4  0.03254800  0.68492900  0.87623200  1
  O2-  O10  4  0.19956500  0.06149100  0.12806200  1
  O2-  O11  4  0.29124500  0.56953500  0.10753200  1
  O2-  O12  4  0.45508900  0.17552900  0.89923200  1
  F-  F13  4  0.15567200  0.63248500  0.48927400  1
