# generated using pymatgen
data_LiH2BrO
_symmetry_space_group_name_H-M   Cmcm
_cell_length_a   8.12831800
_cell_length_b   8.20110800
_cell_length_c   8.04646200
_cell_angle_alpha   90.00000000
_cell_angle_beta   90.00000000
_cell_angle_gamma   90.00000000
_symmetry_Int_Tables_number   63
_chemical_formula_structural   LiH2BrO
_chemical_formula_sum   'Li8 H16 Br8 O8'
_cell_volume   536.38692353
_cell_formula_units_Z   8
loop_
 _symmetry_equiv_pos_site_id
 _symmetry_equiv_pos_as_xyz
  1  'x, y, z'
  2  '-x, -y, -z'
  3  '-x, -y, z+1/2'
  4  'x, y, -z+1/2'
  5  'x, -y, -z'
  6  '-x, y, z'
  7  '-x, y, -z+1/2'
  8  'x, -y, z+1/2'
  9  'x+1/2, y+1/2, z'
  10  '-x+1/2, -y+1/2, -z'
  11  '-x+1/2, -y+1/2, z+1/2'
  12  'x+1/2, y+1/2, -z+1/2'
  13  'x+1/2, -y+1/2, -z'
  14  '-x+1/2, y+1/2, z'
  15  '-x+1/2, y+1/2, -z+1/2'
  16  'x+1/2, -y+1/2, z+1/2'
loop_
 _atom_type_symbol
 _atom_type_oxidation_number
  Li+  1.0
  H+  1.0
  Br-  -1.0
  O2-  -2.0
loop_
 _atom_site_type_symbol
 _atom_site_label
 _atom_site_symmetry_multiplicity
 _atom_site_fract_x
 _atom_site_fract_y
 _atom_site_fract_z
 _atom_site_occupancy
  Li+  Li0  4  0.00000000  0.00000000  0.00000000  1
  Li+  Li1  4  0.00000000  0.31717000  0.25000000  1
  H+  H2  16  0.09479000  0.30462500  0.55873400  1
  Br-  Br3  8  0.24847200  0.02877900  0.25000000  1
  O2-  O4  8  0.00000000  0.25535000  0.00033900  1
